/*--------------------------------*- C++ -*----------------------------------*\
| =========                 |                                                 |
| \\      /  F ield         | OpenFOAM: The Open Source CFD Toolbox           |
|  \\    /   O peration     | Version:  4.1                                   |
|   \\  /    A nd           | Web:      www.OpenFOAM.org                      |
|    \\/     M anipulation  |                                                 |
\*---------------------------------------------------------------------------*/
FoamFile
{
    version     2.0;
    format      ascii;
    class       dictionary;
    object      fvSolution;
}
// * * * * * * * * * * * * * * * * * * * * * * * * * * * * * * * * * * * * * //

solvers
{
    p
    {
	relTol           0.05;
        tolerance        1e-6;
        maxIter          5000;

        solver           GAMG;
	smoother         DIC;
        agglomerator             faceAreaPair;
        cacheAgglomeration       true;
	directSolveCoarsest      false;
        mergeLevels              1;
        nPreSweeps               0;
        nPostSweeps              2;
        nFinestSweeps            2;
        maxPreSweeps             4;
        preSweepsLevelMultiplier 1;
        interpolateCorrection    0;
        scaleCorrection          1;
        nCellsInCoarsestLevel    10;
    };

    pFinal
    {
        $p;
        relTol           0;
    }

    "(U|k)"
    {
        solver           PBiCG;
        preconditioner   DILU;
        tolerance        1e-05;
        relTol           0.1;
        maxIter          5000;
    }

    "(U|k)Final"
    {
        $U;
        relTol           0;
    }
}

PIMPLE
{
    nOuterCorrectors 1;
    nCorrectors     2;
    nNonOrthogonalCorrectors 0;
    pRefCell        0;
    pRefValue       0;
}

// ************************************************************************* //
