/*--------------------------------*- C++ -*----------------------------------*\
| =========                 |                                                 |
| \\      /  F ield         | OpenFOAM: The Open Source CFD Toolbox           |
|  \\    /   O peration     | Version:  4.1                                   |
|   \\  /    A nd           | Web:      www.OpenFOAM.org                      |
|    \\/     M anipulation  |                                                 |
\*---------------------------------------------------------------------------*/
FoamFile
{
    version     2.0;
    format      ascii;
    class       volVectorField;
    object      U;
}
// * * * * * * * * * * * * * * * * * * * * * * * * * * * * * * * * * * * * * //

dimensions      [ 0 1 -1 0 0 0 0 ];

internalField   uniform ( 15 0 0 );

boundaryField
{
    bottomWall
    {
        type            fixedValue;
        value           uniform ( 0 0 0 );
    }
    topWall
    {
        type            fixedValue;
        value           uniform ( 0 0 0 );
    }
    sides_half0
    {
        type            cyclic;
    }
    sides_half1
    {
        type            cyclic;
    }
    inout_half0
    {
        type            cyclic;
    }
    inout_half1
    {
        type            cyclic;
    }
}

// ************************************************************************* //
